1415

Au 0 0 0
Au 2.42705 0 1.5
Au 2.42705 0 -1.5
Au 1.5 2.42705 0
Au -1.5 2.42705 0
Au 0 1.5 2.42705
Au 0 -1.5 2.42705
Au 1.5 -2.42705 0
Au 0 1.5 -2.42705
Au -2.42705 0 1.5
Au 0 -1.5 -2.42705
Au -2.42705 0 -1.5
Au -1.5 -2.42705 0
Au 4.8541 0 3
Au 4.8541 0 -3
Au 3 4.8541 0
Au -3 4.8541 0
Au 0 3 4.8541
Au 0 -3 4.8541
Au 3 -4.8541 0
Au 0 3 -4.8541
Au -4.8541 0 3
Au 0 -3 -4.8541
Au -4.8541 0 -3
Au -3 -4.8541 0
Au 4.8541 0 0
Au 3.92705 2.42705 1.5
Au 2.42705 1.5 3.92705
Au 2.42705 -1.5 3.92705
Au 3.92705 -2.42705 1.5
Au -3.92705 2.42705 -1.5
Au -2.42705 1.5 -3.92705
Au -4.8541 0 0
Au -2.42705 -1.5 -3.92705
Au -3.92705 -2.42705 -1.5
Au 3.92705 2.42705 -1.5
Au 3.92705 -2.42705 -1.5
Au 2.42705 1.5 -3.92705
Au 2.42705 -1.5 -3.92705
Au -3.92705 2.42705 1.5
Au -2.42705 1.5 3.92705
Au -2.42705 -1.5 3.92705
Au -3.92705 -2.42705 1.5
Au 0 4.8541 0
Au 1.5 3.92705 2.42705
Au 1.5 3.92705 -2.42705
Au -1.5 -3.92705 2.42705
Au 0 -4.8541 0
Au -1.5 -3.92705 -2.42705
Au 1.5 -3.92705 2.42705
Au 1.5 -3.92705 -2.42705
Au -1.5 3.92705 2.42705
Au -1.5 3.92705 -2.42705
Au 0 0 -4.8541
Au 0 0 4.8541
Au 7.28115 0 4.5
Au 7.28115 0 -4.5
Au 4.5 7.28115 0
Au -4.5 7.28115 0
Au 0 4.5 7.28115
Au 0 -4.5 7.28115
Au 4.5 -7.28115 0
Au 0 4.5 -7.28115
Au -7.28115 0 4.5
Au 0 -4.5 -7.28115
Au -7.28115 0 -4.5
Au -4.5 -7.28115 0
Au 7.28115 0 1.5
Au 7.28115 0 -1.5
Au 6.3541 2.42705 3
Au 5.42705 4.8541 1.5
Au 4.8541 1.5 5.42705
Au 2.42705 3 6.3541
Au 4.8541 -1.5 5.42705
Au 2.42705 -3 6.3541
Au 6.3541 -2.42705 3
Au 5.42705 -4.8541 1.5
Au -6.3541 2.42705 -3
Au -5.42705 4.8541 -1.5
Au -4.8541 1.5 -5.42705
Au -2.42705 3 -6.3541
Au -7.28115 0 -1.5
Au -7.28115 0 1.5
Au -4.8541 -1.5 -5.42705
Au -2.42705 -3 -6.3541
Au -6.3541 -2.42705 -3
Au -5.42705 -4.8541 -1.5
Au 6.3541 2.42705 -3
Au 5.42705 4.8541 -1.5
Au 6.3541 -2.42705 -3
Au 5.42705 -4.8541 -1.5
Au 4.8541 1.5 -5.42705
Au 2.42705 3 -6.3541
Au 4.8541 -1.5 -5.42705
Au 2.42705 -3 -6.3541
Au -6.3541 2.42705 3
Au -5.42705 4.8541 1.5
Au -4.8541 1.5 5.42705
Au -2.42705 3 6.3541
Au -4.8541 -1.5 5.42705
Au -2.42705 -3 6.3541
Au -6.3541 -2.42705 3
Au -5.42705 -4.8541 1.5
Au 1.5 7.28115 0
Au -1.5 7.28115 0
Au 3 6.3541 2.42705
Au 1.5 5.42705 4.8541
Au 3 6.3541 -2.42705
Au 1.5 5.42705 -4.8541
Au -3 -6.3541 2.42705
Au -1.5 -5.42705 4.8541
Au -1.5 -7.28115 0
Au 1.5 -7.28115 0
Au -3 -6.3541 -2.42705
Au -1.5 -5.42705 -4.8541
Au 3 -6.3541 2.42705
Au 1.5 -5.42705 4.8541
Au 3 -6.3541 -2.42705
Au 1.5 -5.42705 -4.8541
Au -3 6.3541 2.42705
Au -1.5 5.42705 4.8541
Au -3 6.3541 -2.42705
Au -1.5 5.42705 -4.8541
Au 0 1.5 -7.28115
Au 0 -1.5 -7.28115
Au 0 -1.5 7.28115
Au 0 1.5 7.28115
Au 6.3541 2.42705 0
Au 3.92705 3.92705 3.92705
Au 2.42705 0 6.3541
Au 3.92705 -3.92705 3.92705
Au 6.3541 -2.42705 0
Au -3.92705 3.92705 -3.92705
Au -6.3541 2.42705 0
Au -6.3541 -2.42705 0
Au -3.92705 -3.92705 -3.92705
Au -2.42705 0 -6.3541
Au 3.92705 3.92705 -3.92705
Au 2.42705 0 -6.3541
Au 3.92705 -3.92705 -3.92705
Au -3.92705 -3.92705 3.92705
Au -2.42705 0 6.3541
Au -3.92705 3.92705 3.92705
Au 0 6.3541 -2.42705
Au 0 6.3541 2.42705
Au 0 -6.3541 2.42705
Au 0 -6.3541 -2.42705
Au 9.7082 0 6
Au 9.7082 0 -6
Au 6 9.7082 0
Au -6 9.7082 0
Au 0 6 9.7082
Au 0 -6 9.7082
Au 6 -9.7082 0
Au 0 6 -9.7082
Au -9.7082 0 6
Au 0 -6 -9.7082
Au -9.7082 0 -6
Au -6 -9.7082 0
Au 9.7082 0 3
Au 9.7082 0 0
Au 9.7082 0 -3
Au 8.78115 2.42705 4.5
Au 7.8541 4.8541 3
Au 6.92705 7.28115 1.5
Au 7.28115 1.5 6.92705
Au 4.8541 3 7.8541
Au 2.42705 4.5 8.78115
Au 7.28115 -1.5 6.92705
Au 4.8541 -3 7.8541
Au 2.42705 -4.5 8.78115
Au 8.78115 -2.42705 4.5
Au 7.8541 -4.8541 3
Au 6.92705 -7.28115 1.5
Au -8.78115 2.42705 -4.5
Au -7.8541 4.8541 -3
Au -6.92705 7.28115 -1.5
Au -7.28115 1.5 -6.92705
Au -4.8541 3 -7.8541
Au -2.42705 4.5 -8.78115
Au -9.7082 0 -3
Au -9.7082 0 0
Au -9.7082 0 3
Au -7.28115 -1.5 -6.92705
Au -4.8541 -3 -7.8541
Au -2.42705 -4.5 -8.78115
Au -8.78115 -2.42705 -4.5
Au -7.8541 -4.8541 -3
Au -6.92705 -7.28115 -1.5
Au 8.78115 2.42705 -4.5
Au 7.8541 4.8541 -3
Au 6.92705 7.28115 -1.5
Au 8.78115 -2.42705 -4.5
Au 7.8541 -4.8541 -3
Au 6.92705 -7.28115 -1.5
Au 7.28115 1.5 -6.92705
Au 4.8541 3 -7.8541
Au 2.42705 4.5 -8.78115
Au 7.28115 -1.5 -6.92705
Au 4.8541 -3 -7.8541
Au 2.42705 -4.5 -8.78115
Au -8.78115 2.42705 4.5
Au -7.8541 4.8541 3
Au -6.92705 7.28115 1.5
Au -7.28115 1.5 6.92705
Au -4.8541 3 7.8541
Au -2.42705 4.5 8.78115
Au -7.28115 -1.5 6.92705
Au -4.8541 -3 7.8541
Au -2.42705 -4.5 8.78115
Au -8.78115 -2.42705 4.5
Au -7.8541 -4.8541 3
Au -6.92705 -7.28115 1.5
Au 3 9.7082 0
Au 0 9.7082 0
Au -3 9.7082 0
Au 4.5 8.78115 2.42705
Au 3 7.8541 4.8541
Au 1.5 6.92705 7.28115
Au 4.5 8.78115 -2.42705
Au 3 7.8541 -4.8541
Au 1.5 6.92705 -7.28115
Au -4.5 -8.78115 2.42705
Au -3 -7.8541 4.8541
Au -1.5 -6.92705 7.28115
Au -3 -9.7082 0
Au 0 -9.7082 0
Au 3 -9.7082 0
Au -4.5 -8.78115 -2.42705
Au -3 -7.8541 -4.8541
Au -1.5 -6.92705 -7.28115
Au 4.5 -8.78115 2.42705
Au 3 -7.8541 4.8541
Au 1.5 -6.92705 7.28115
Au 4.5 -8.78115 -2.42705
Au 3 -7.8541 -4.8541
Au 1.5 -6.92705 -7.28115
Au -4.5 8.78115 2.42705
Au -3 7.8541 4.8541
Au -1.5 6.92705 7.28115
Au -4.5 8.78115 -2.42705
Au -3 7.8541 -4.8541
Au -1.5 6.92705 -7.28115
Au 0 3 -9.7082
Au 0 0 -9.7082
Au 0 -3 -9.7082
Au 0 -3 9.7082
Au 0 0 9.7082
Au 0 3 9.7082
Au 8.78115 2.42705 1.5
Au 8.78115 2.42705 -1.5
Au 7.8541 4.8541 0
Au 6.3541 3.92705 5.42705
Au 5.42705 6.3541 3.92705
Au 3.92705 5.42705 6.3541
Au 4.8541 0 7.8541
Au 2.42705 1.5 8.78115
Au 2.42705 -1.5 8.78115
Au 6.3541 -3.92705 5.42705
Au 3.92705 -5.42705 6.3541
Au 5.42705 -6.3541 3.92705
Au 8.78115 -2.42705 1.5
Au 8.78115 -2.42705 -1.5
Au 7.8541 -4.8541 0
Au -6.3541 3.92705 -5.42705
Au -5.42705 6.3541 -3.92705
Au -3.92705 5.42705 -6.3541
Au -8.78115 2.42705 -1.5
Au -7.8541 4.8541 0
Au -8.78115 2.42705 1.5
Au -8.78115 -2.42705 -1.5
Au -8.78115 -2.42705 1.5
Au -7.8541 -4.8541 0
Au -6.3541 -3.92705 -5.42705
Au -3.92705 -5.42705 -6.3541
Au -5.42705 -6.3541 -3.92705
Au -4.8541 0 -7.8541
Au -2.42705 1.5 -8.78115
Au -2.42705 -1.5 -8.78115
Au 6.3541 3.92705 -5.42705
Au 5.42705 6.3541 -3.92705
Au 3.92705 5.42705 -6.3541
Au 4.8541 0 -7.8541
Au 2.42705 1.5 -8.78115
Au 2.42705 -1.5 -8.78115
Au 6.3541 -3.92705 -5.42705
Au 5.42705 -6.3541 -3.92705
Au 3.92705 -5.42705 -6.3541
Au -6.3541 -3.92705 5.42705
Au -3.92705 -5.42705 6.3541
Au -5.42705 -6.3541 3.92705
Au -4.8541 0 7.8541
Au -2.42705 1.5 8.78115
Au -2.42705 -1.5 8.78115
Au -6.3541 3.92705 5.42705
Au -5.42705 6.3541 3.92705
Au -3.92705 5.42705 6.3541
Au 1.5 8.78115 -2.42705
Au -1.5 8.78115 -2.42705
Au 0 7.8541 -4.8541
Au 1.5 8.78115 2.42705
Au -1.5 8.78115 2.42705
Au 0 7.8541 4.8541
Au -1.5 -8.78115 2.42705
Au 0 -7.8541 4.8541
Au 1.5 -8.78115 2.42705
Au -1.5 -8.78115 -2.42705
Au 1.5 -8.78115 -2.42705
Au 0 -7.8541 -4.8541
Au 12.1353 0 7.5
Au 12.1353 0 -7.5
Au 7.5 12.1353 0
Au -7.5 12.1353 0
Au 0 7.5 12.1353
Au 0 -7.5 12.1353
Au 7.5 -12.1353 0
Au 0 7.5 -12.1353
Au -12.1353 0 7.5
Au 0 -7.5 -12.1353
Au -12.1353 0 -7.5
Au -7.5 -12.1353 0
Au 12.1353 0 4.5
Au 12.1353 0 1.5
Au 12.1353 0 -1.5
Au 12.1353 0 -4.5
Au 11.2082 2.42705 6
Au 10.2812 4.8541 4.5
Au 9.3541 7.28115 3
Au 8.42705 9.7082 1.5
Au 9.7082 1.5 8.42705
Au 7.28115 3 9.3541
Au 4.8541 4.5 10.2812
Au 2.42705 6 11.2082
Au 9.7082 -1.5 8.42705
Au 7.28115 -3 9.3541
Au 4.8541 -4.5 10.2812
Au 2.42705 -6 11.2082
Au 11.2082 -2.42705 6
Au 10.2812 -4.8541 4.5
Au 9.3541 -7.28115 3
Au 8.42705 -9.7082 1.5
Au -11.2082 2.42705 -6
Au -10.2812 4.8541 -4.5
Au -9.3541 7.28115 -3
Au -8.42705 9.7082 -1.5
Au -9.7082 1.5 -8.42705
Au -7.28115 3 -9.3541
Au -4.8541 4.5 -10.2812
Au -2.42705 6 -11.2082
Au -12.1353 0 -4.5
Au -12.1353 0 -1.5
Au -12.1353 0 1.5
Au -12.1353 0 4.5
Au -9.7082 -1.5 -8.42705
Au -7.28115 -3 -9.3541
Au -4.8541 -4.5 -10.2812
Au -2.42705 -6 -11.2082
Au -11.2082 -2.42705 -6
Au -10.2812 -4.8541 -4.5
Au -9.3541 -7.28115 -3
Au -8.42705 -9.7082 -1.5
Au 11.2082 2.42705 -6
Au 10.2812 4.8541 -4.5
Au 9.3541 7.28115 -3
Au 8.42705 9.7082 -1.5
Au 11.2082 -2.42705 -6
Au 10.2812 -4.8541 -4.5
Au 9.3541 -7.28115 -3
Au 8.42705 -9.7082 -1.5
Au 9.7082 1.5 -8.42705
Au 7.28115 3 -9.3541
Au 4.8541 4.5 -10.2812
Au 2.42705 6 -11.2082
Au 9.7082 -1.5 -8.42705
Au 7.28115 -3 -9.3541
Au 4.8541 -4.5 -10.2812
Au 2.42705 -6 -11.2082
Au -11.2082 2.42705 6
Au -10.2812 4.8541 4.5
Au -9.3541 7.28115 3
Au -8.42705 9.7082 1.5
Au -9.7082 1.5 8.42705
Au -7.28115 3 9.3541
Au -4.8541 4.5 10.2812
Au -2.42705 6 11.2082
Au -9.7082 -1.5 8.42705
Au -7.28115 -3 9.3541
Au -4.8541 -4.5 10.2812
Au -2.42705 -6 11.2082
Au -11.2082 -2.42705 6
Au -10.2812 -4.8541 4.5
Au -9.3541 -7.28115 3
Au -8.42705 -9.7082 1.5
Au 4.5 12.1353 0
Au 1.5 12.1353 0
Au -1.5 12.1353 0
Au -4.5 12.1353 0
Au 6 11.2082 2.42705
Au 4.5 10.2812 4.8541
Au 3 9.3541 7.28115
Au 1.5 8.42705 9.7082
Au 6 11.2082 -2.42705
Au 4.5 10.2812 -4.8541
Au 3 9.3541 -7.28115
Au 1.5 8.42705 -9.7082
Au -6 -11.2082 2.42705
Au -4.5 -10.2812 4.8541
Au -3 -9.3541 7.28115
Au -1.5 -8.42705 9.7082
Au -4.5 -12.1353 0
Au -1.5 -12.1353 0
Au 1.5 -12.1353 0
Au 4.5 -12.1353 0
Au -6 -11.2082 -2.42705
Au -4.5 -10.2812 -4.8541
Au -3 -9.3541 -7.28115
Au -1.5 -8.42705 -9.7082
Au 6 -11.2082 2.42705
Au 4.5 -10.2812 4.8541
Au 3 -9.3541 7.28115
Au 1.5 -8.42705 9.7082
Au 6 -11.2082 -2.42705
Au 4.5 -10.2812 -4.8541
Au 3 -9.3541 -7.28115
Au 1.5 -8.42705 -9.7082
Au -6 11.2082 2.42705
Au -4.5 10.2812 4.8541
Au -3 9.3541 7.28115
Au -1.5 8.42705 9.7082
Au -6 11.2082 -2.42705
Au -4.5 10.2812 -4.8541
Au -3 9.3541 -7.28115
Au -1.5 8.42705 -9.7082
Au 0 4.5 -12.1353
Au 0 1.5 -12.1353
Au 0 -1.5 -12.1353
Au 0 -4.5 -12.1353
Au 0 -4.5 12.1353
Au 0 -1.5 12.1353
Au 0 1.5 12.1353
Au 0 4.5 12.1353
Au 11.2082 2.42705 3
Au 11.2082 2.42705 0
Au 10.2812 4.8541 1.5
Au 11.2082 2.42705 -3
Au 10.2812 4.8541 -1.5
Au 9.3541 7.28115 0
Au 8.78115 3.92705 6.92705
Au 7.8541 6.3541 5.42705
Au 6.3541 5.42705 7.8541
Au 6.92705 8.78115 3.92705
Au 5.42705 7.8541 6.3541
Au 3.92705 6.92705 8.78115
Au 7.28115 0 9.3541
Au 4.8541 1.5 10.2812
Au 4.8541 -1.5 10.2812
Au 2.42705 3 11.2082
Au 2.42705 0 11.2082
Au 2.42705 -3 11.2082
Au 8.78115 -3.92705 6.92705
Au 6.3541 -5.42705 7.8541
Au 7.8541 -6.3541 5.42705
Au 3.92705 -6.92705 8.78115
Au 5.42705 -7.8541 6.3541
Au 6.92705 -8.78115 3.92705
Au 11.2082 -2.42705 3
Au 11.2082 -2.42705 0
Au 10.2812 -4.8541 1.5
Au 11.2082 -2.42705 -3
Au 10.2812 -4.8541 -1.5
Au 9.3541 -7.28115 0
Au -8.78115 3.92705 -6.92705
Au -7.8541 6.3541 -5.42705
Au -6.3541 5.42705 -7.8541
Au -6.92705 8.78115 -3.92705
Au -5.42705 7.8541 -6.3541
Au -3.92705 6.92705 -8.78115
Au -11.2082 2.42705 -3
Au -10.2812 4.8541 -1.5
Au -11.2082 2.42705 0
Au -9.3541 7.28115 0
Au -10.2812 4.8541 1.5
Au -11.2082 2.42705 3
Au -11.2082 -2.42705 -3
Au -11.2082 -2.42705 0
Au -10.2812 -4.8541 -1.5
Au -11.2082 -2.42705 3
Au -10.2812 -4.8541 1.5
Au -9.3541 -7.28115 0
Au -8.78115 -3.92705 -6.92705
Au -6.3541 -5.42705 -7.8541
Au -7.8541 -6.3541 -5.42705
Au -3.92705 -6.92705 -8.78115
Au -5.42705 -7.8541 -6.3541
Au -6.92705 -8.78115 -3.92705
Au -7.28115 0 -9.3541
Au -4.8541 1.5 -10.2812
Au -4.8541 -1.5 -10.2812
Au -2.42705 3 -11.2082
Au -2.42705 0 -11.2082
Au -2.42705 -3 -11.2082
Au 8.78115 3.92705 -6.92705
Au 7.8541 6.3541 -5.42705
Au 6.3541 5.42705 -7.8541
Au 6.92705 8.78115 -3.92705
Au 5.42705 7.8541 -6.3541
Au 3.92705 6.92705 -8.78115
Au 7.28115 0 -9.3541
Au 4.8541 1.5 -10.2812
Au 4.8541 -1.5 -10.2812
Au 2.42705 3 -11.2082
Au 2.42705 0 -11.2082
Au 2.42705 -3 -11.2082
Au 8.78115 -3.92705 -6.92705
Au 7.8541 -6.3541 -5.42705
Au 6.3541 -5.42705 -7.8541
Au 6.92705 -8.78115 -3.92705
Au 5.42705 -7.8541 -6.3541
Au 3.92705 -6.92705 -8.78115
Au -8.78115 -3.92705 6.92705
Au -6.3541 -5.42705 7.8541
Au -7.8541 -6.3541 5.42705
Au -3.92705 -6.92705 8.78115
Au -5.42705 -7.8541 6.3541
Au -6.92705 -8.78115 3.92705
Au -7.28115 0 9.3541
Au -4.8541 1.5 10.2812
Au -4.8541 -1.5 10.2812
Au -2.42705 3 11.2082
Au -2.42705 0 11.2082
Au -2.42705 -3 11.2082
Au -8.78115 3.92705 6.92705
Au -7.8541 6.3541 5.42705
Au -6.3541 5.42705 7.8541
Au -6.92705 8.78115 3.92705
Au -5.42705 7.8541 6.3541
Au -3.92705 6.92705 8.78115
Au 3 11.2082 -2.42705
Au 0 11.2082 -2.42705
Au 1.5 10.2812 -4.8541
Au -3 11.2082 -2.42705
Au -1.5 10.2812 -4.8541
Au 0 9.3541 -7.28115
Au 3 11.2082 2.42705
Au 0 11.2082 2.42705
Au 1.5 10.2812 4.8541
Au -3 11.2082 2.42705
Au -1.5 10.2812 4.8541
Au 0 9.3541 7.28115
Au -3 -11.2082 2.42705
Au -1.5 -10.2812 4.8541
Au 0 -11.2082 2.42705
Au 0 -9.3541 7.28115
Au 1.5 -10.2812 4.8541
Au 3 -11.2082 2.42705
Au -3 -11.2082 -2.42705
Au 0 -11.2082 -2.42705
Au -1.5 -10.2812 -4.8541
Au 3 -11.2082 -2.42705
Au 1.5 -10.2812 -4.8541
Au 0 -9.3541 -7.28115
Au 14.5623 0 9
Au 14.5623 0 -9
Au 9 14.5623 0
Au -9 14.5623 0
Au 0 9 14.5623
Au 0 -9 14.5623
Au 9 -14.5623 0
Au 0 9 -14.5623
Au -14.5623 0 9
Au 0 -9 -14.5623
Au -14.5623 0 -9
Au -9 -14.5623 0
Au 14.5623 0 6
Au 14.5623 0 3
Au 14.5623 0 0
Au 14.5623 0 -3
Au 14.5623 0 -6
Au 13.6353 2.42705 7.5
Au 12.7082 4.8541 6
Au 11.7812 7.28115 4.5
Au 10.8541 9.7082 3
Au 9.92705 12.1353 1.5
Au 12.1353 1.5 9.92705
Au 9.7082 3 10.8541
Au 7.28115 4.5 11.7812
Au 4.8541 6 12.7082
Au 2.42705 7.5 13.6353
Au 12.1353 -1.5 9.92705
Au 9.7082 -3 10.8541
Au 7.28115 -4.5 11.7812
Au 4.8541 -6 12.7082
Au 2.42705 -7.5 13.6353
Au 13.6353 -2.42705 7.5
Au 12.7082 -4.8541 6
Au 11.7812 -7.28115 4.5
Au 10.8541 -9.7082 3
Au 9.92705 -12.1353 1.5
Au -13.6353 2.42705 -7.5
Au -12.7082 4.8541 -6
Au -11.7812 7.28115 -4.5
Au -10.8541 9.7082 -3
Au -9.92705 12.1353 -1.5
Au -12.1353 1.5 -9.92705
Au -9.7082 3 -10.8541
Au -7.28115 4.5 -11.7812
Au -4.8541 6 -12.7082
Au -2.42705 7.5 -13.6353
Au -14.5623 0 -6
Au -14.5623 0 -3
Au -14.5623 0 0
Au -14.5623 0 3
Au -14.5623 0 6
Au -12.1353 -1.5 -9.92705
Au -9.7082 -3 -10.8541
Au -7.28115 -4.5 -11.7812
Au -4.8541 -6 -12.7082
Au -2.42705 -7.5 -13.6353
Au -13.6353 -2.42705 -7.5
Au -12.7082 -4.8541 -6
Au -11.7812 -7.28115 -4.5
Au -10.8541 -9.7082 -3
Au -9.92705 -12.1353 -1.5
Au 13.6353 2.42705 -7.5
Au 12.7082 4.8541 -6
Au 11.7812 7.28115 -4.5
Au 10.8541 9.7082 -3
Au 9.92705 12.1353 -1.5
Au 13.6353 -2.42705 -7.5
Au 12.7082 -4.8541 -6
Au 11.7812 -7.28115 -4.5
Au 10.8541 -9.7082 -3
Au 9.92705 -12.1353 -1.5
Au 12.1353 1.5 -9.92705
Au 9.7082 3 -10.8541
Au 7.28115 4.5 -11.7812
Au 4.8541 6 -12.7082
Au 2.42705 7.5 -13.6353
Au 12.1353 -1.5 -9.92705
Au 9.7082 -3 -10.8541
Au 7.28115 -4.5 -11.7812
Au 4.8541 -6 -12.7082
Au 2.42705 -7.5 -13.6353
Au -13.6353 2.42705 7.5
Au -12.7082 4.8541 6
Au -11.7812 7.28115 4.5
Au -10.8541 9.7082 3
Au -9.92705 12.1353 1.5
Au -12.1353 1.5 9.92705
Au -9.7082 3 10.8541
Au -7.28115 4.5 11.7812
Au -4.8541 6 12.7082
Au -2.42705 7.5 13.6353
Au -12.1353 -1.5 9.92705
Au -9.7082 -3 10.8541
Au -7.28115 -4.5 11.7812
Au -4.8541 -6 12.7082
Au -2.42705 -7.5 13.6353
Au -13.6353 -2.42705 7.5
Au -12.7082 -4.8541 6
Au -11.7812 -7.28115 4.5
Au -10.8541 -9.7082 3
Au -9.92705 -12.1353 1.5
Au 6 14.5623 0
Au 3 14.5623 0
Au 0 14.5623 0
Au -3 14.5623 0
Au -6 14.5623 0
Au 7.5 13.6353 2.42705
Au 6 12.7082 4.8541
Au 4.5 11.7812 7.28115
Au 3 10.8541 9.7082
Au 1.5 9.92705 12.1353
Au 7.5 13.6353 -2.42705
Au 6 12.7082 -4.8541
Au 4.5 11.7812 -7.28115
Au 3 10.8541 -9.7082
Au 1.5 9.92705 -12.1353
Au -7.5 -13.6353 2.42705
Au -6 -12.7082 4.8541
Au -4.5 -11.7812 7.28115
Au -3 -10.8541 9.7082
Au -1.5 -9.92705 12.1353
Au -6 -14.5623 0
Au -3 -14.5623 0
Au 0 -14.5623 0
Au 3 -14.5623 0
Au 6 -14.5623 0
Au -7.5 -13.6353 -2.42705
Au -6 -12.7082 -4.8541
Au -4.5 -11.7812 -7.28115
Au -3 -10.8541 -9.7082
Au -1.5 -9.92705 -12.1353
Au 7.5 -13.6353 2.42705
Au 6 -12.7082 4.8541
Au 4.5 -11.7812 7.28115
Au 3 -10.8541 9.7082
Au 1.5 -9.92705 12.1353
Au 7.5 -13.6353 -2.42705
Au 6 -12.7082 -4.8541
Au 4.5 -11.7812 -7.28115
Au 3 -10.8541 -9.7082
Au 1.5 -9.92705 -12.1353
Au -7.5 13.6353 2.42705
Au -6 12.7082 4.8541
Au -4.5 11.7812 7.28115
Au -3 10.8541 9.7082
Au -1.5 9.92705 12.1353
Au -7.5 13.6353 -2.42705
Au -6 12.7082 -4.8541
Au -4.5 11.7812 -7.28115
Au -3 10.8541 -9.7082
Au -1.5 9.92705 -12.1353
Au 0 6 -14.5623
Au 0 3 -14.5623
Au 0 0 -14.5623
Au 0 -3 -14.5623
Au 0 -6 -14.5623
Au 0 -6 14.5623
Au 0 -3 14.5623
Au 0 0 14.5623
Au 0 3 14.5623
Au 0 6 14.5623
Au 13.6353 2.42705 4.5
Au 13.6353 2.42705 1.5
Au 12.7082 4.8541 3
Au 13.6353 2.42705 -1.5
Au 12.7082 4.8541 0
Au 11.7812 7.28115 1.5
Au 13.6353 2.42705 -4.5
Au 12.7082 4.8541 -3
Au 11.7812 7.28115 -1.5
Au 10.8541 9.7082 0
Au 11.2082 3.92705 8.42705
Au 10.2812 6.3541 6.92705
Au 8.78115 5.42705 9.3541
Au 9.3541 8.78115 5.42705
Au 7.8541 7.8541 7.8541
Au 6.3541 6.92705 10.2812
Au 8.42705 11.2082 3.92705
Au 6.92705 10.2812 6.3541
Au 5.42705 9.3541 8.78115
Au 3.92705 8.42705 11.2082
Au 9.7082 0 10.8541
Au 7.28115 1.5 11.7812
Au 7.28115 -1.5 11.7812
Au 4.8541 3 12.7082
Au 4.8541 0 12.7082
Au 4.8541 -3 12.7082
Au 2.42705 4.5 13.6353
Au 2.42705 1.5 13.6353
Au 2.42705 -1.5 13.6353
Au 2.42705 -4.5 13.6353
Au 11.2082 -3.92705 8.42705
Au 8.78115 -5.42705 9.3541
Au 10.2812 -6.3541 6.92705
Au 6.3541 -6.92705 10.2812
Au 7.8541 -7.8541 7.8541
Au 9.3541 -8.78115 5.42705
Au 3.92705 -8.42705 11.2082
Au 5.42705 -9.3541 8.78115
Au 6.92705 -10.2812 6.3541
Au 8.42705 -11.2082 3.92705
Au 13.6353 -2.42705 4.5
Au 13.6353 -2.42705 1.5
Au 12.7082 -4.8541 3
Au 13.6353 -2.42705 -1.5
Au 12.7082 -4.8541 0
Au 11.7812 -7.28115 1.5
Au 13.6353 -2.42705 -4.5
Au 12.7082 -4.8541 -3
Au 11.7812 -7.28115 -1.5
Au 10.8541 -9.7082 0
Au -11.2082 3.92705 -8.42705
Au -10.2812 6.3541 -6.92705
Au -8.78115 5.42705 -9.3541
Au -9.3541 8.78115 -5.42705
Au -7.8541 7.8541 -7.8541
Au -6.3541 6.92705 -10.2812
Au -8.42705 11.2082 -3.92705
Au -6.92705 10.2812 -6.3541
Au -5.42705 9.3541 -8.78115
Au -3.92705 8.42705 -11.2082
Au -13.6353 2.42705 -4.5
Au -12.7082 4.8541 -3
Au -13.6353 2.42705 -1.5
Au -11.7812 7.28115 -1.5
Au -12.7082 4.8541 0
Au -13.6353 2.42705 1.5
Au -10.8541 9.7082 0
Au -11.7812 7.28115 1.5
Au -12.7082 4.8541 3
Au -13.6353 2.42705 4.5
Au -13.6353 -2.42705 -4.5
Au -13.6353 -2.42705 -1.5
Au -12.7082 -4.8541 -3
Au -13.6353 -2.42705 1.5
Au -12.7082 -4.8541 0
Au -11.7812 -7.28115 -1.5
Au -13.6353 -2.42705 4.5
Au -12.7082 -4.8541 3
Au -11.7812 -7.28115 1.5
Au -10.8541 -9.7082 0
Au -11.2082 -3.92705 -8.42705
Au -8.78115 -5.42705 -9.3541
Au -10.2812 -6.3541 -6.92705
Au -6.3541 -6.92705 -10.2812
Au -7.8541 -7.8541 -7.8541
Au -9.3541 -8.78115 -5.42705
Au -3.92705 -8.42705 -11.2082
Au -5.42705 -9.3541 -8.78115
Au -6.92705 -10.2812 -6.3541
Au -8.42705 -11.2082 -3.92705
Au -9.7082 0 -10.8541
Au -7.28115 1.5 -11.7812
Au -7.28115 -1.5 -11.7812
Au -4.8541 3 -12.7082
Au -4.8541 0 -12.7082
Au -4.8541 -3 -12.7082
Au -2.42705 4.5 -13.6353
Au -2.42705 1.5 -13.6353
Au -2.42705 -1.5 -13.6353
Au -2.42705 -4.5 -13.6353
Au 11.2082 3.92705 -8.42705
Au 10.2812 6.3541 -6.92705
Au 8.78115 5.42705 -9.3541
Au 9.3541 8.78115 -5.42705
Au 7.8541 7.8541 -7.8541
Au 6.3541 6.92705 -10.2812
Au 8.42705 11.2082 -3.92705
Au 6.92705 10.2812 -6.3541
Au 5.42705 9.3541 -8.78115
Au 3.92705 8.42705 -11.2082
Au 9.7082 0 -10.8541
Au 7.28115 1.5 -11.7812
Au 7.28115 -1.5 -11.7812
Au 4.8541 3 -12.7082
Au 4.8541 0 -12.7082
Au 4.8541 -3 -12.7082
Au 2.42705 4.5 -13.6353
Au 2.42705 1.5 -13.6353
Au 2.42705 -1.5 -13.6353
Au 2.42705 -4.5 -13.6353
Au 11.2082 -3.92705 -8.42705
Au 10.2812 -6.3541 -6.92705
Au 8.78115 -5.42705 -9.3541
Au 9.3541 -8.78115 -5.42705
Au 7.8541 -7.8541 -7.8541
Au 6.3541 -6.92705 -10.2812
Au 8.42705 -11.2082 -3.92705
Au 6.92705 -10.2812 -6.3541
Au 5.42705 -9.3541 -8.78115
Au 3.92705 -8.42705 -11.2082
Au -11.2082 -3.92705 8.42705
Au -8.78115 -5.42705 9.3541
Au -10.2812 -6.3541 6.92705
Au -6.3541 -6.92705 10.2812
Au -7.8541 -7.8541 7.8541
Au -9.3541 -8.78115 5.42705
Au -3.92705 -8.42705 11.2082
Au -5.42705 -9.3541 8.78115
Au -6.92705 -10.2812 6.3541
Au -8.42705 -11.2082 3.92705
Au -9.7082 0 10.8541
Au -7.28115 1.5 11.7812
Au -7.28115 -1.5 11.7812
Au -4.8541 3 12.7082
Au -4.8541 0 12.7082
Au -4.8541 -3 12.7082
Au -2.42705 4.5 13.6353
Au -2.42705 1.5 13.6353
Au -2.42705 -1.5 13.6353
Au -2.42705 -4.5 13.6353
Au -11.2082 3.92705 8.42705
Au -10.2812 6.3541 6.92705
Au -8.78115 5.42705 9.3541
Au -9.3541 8.78115 5.42705
Au -7.8541 7.8541 7.8541
Au -6.3541 6.92705 10.2812
Au -8.42705 11.2082 3.92705
Au -6.92705 10.2812 6.3541
Au -5.42705 9.3541 8.78115
Au -3.92705 8.42705 11.2082
Au 4.5 13.6353 -2.42705
Au 1.5 13.6353 -2.42705
Au 3 12.7082 -4.8541
Au -1.5 13.6353 -2.42705
Au 0 12.7082 -4.8541
Au 1.5 11.7812 -7.28115
Au -4.5 13.6353 -2.42705
Au -3 12.7082 -4.8541
Au -1.5 11.7812 -7.28115
Au 0 10.8541 -9.7082
Au 4.5 13.6353 2.42705
Au 1.5 13.6353 2.42705
Au 3 12.7082 4.8541
Au -1.5 13.6353 2.42705
Au 0 12.7082 4.8541
Au 1.5 11.7812 7.28115
Au -4.5 13.6353 2.42705
Au -3 12.7082 4.8541
Au -1.5 11.7812 7.28115
Au 0 10.8541 9.7082
Au -4.5 -13.6353 2.42705
Au -3 -12.7082 4.8541
Au -1.5 -13.6353 2.42705
Au -1.5 -11.7812 7.28115
Au 0 -12.7082 4.8541
Au 1.5 -13.6353 2.42705
Au 0 -10.8541 9.7082
Au 1.5 -11.7812 7.28115
Au 3 -12.7082 4.8541
Au 4.5 -13.6353 2.42705
Au -4.5 -13.6353 -2.42705
Au -1.5 -13.6353 -2.42705
Au -3 -12.7082 -4.8541
Au 1.5 -13.6353 -2.42705
Au 0 -12.7082 -4.8541
Au -1.5 -11.7812 -7.28115
Au 4.5 -13.6353 -2.42705
Au 3 -12.7082 -4.8541
Au 1.5 -11.7812 -7.28115
Au 0 -10.8541 -9.7082
Au 16.9894 0 10.5
Au 16.9894 0 -10.5
Au 10.5 16.9894 0
Au -10.5 16.9894 0
Au 0 10.5 16.9894
Au 0 -10.5 16.9894
Au 10.5 -16.9894 0
Au 0 10.5 -16.9894
Au -16.9894 0 10.5
Au 0 -10.5 -16.9894
Au -16.9894 0 -10.5
Au -10.5 -16.9894 0
Au 16.9894 0 7.5
Au 16.9894 0 4.5
Au 16.9894 0 1.5
Au 16.9894 0 -1.5
Au 16.9894 0 -4.5
Au 16.9894 0 -7.5
Au 16.0623 2.42705 9
Au 15.1353 4.8541 7.5
Au 14.2082 7.28115 6
Au 13.2812 9.7082 4.5
Au 12.3541 12.1353 3
Au 11.4271 14.5623 1.5
Au 14.5623 1.5 11.4271
Au 12.1353 3 12.3541
Au 9.7082 4.5 13.2812
Au 7.28115 6 14.2082
Au 4.8541 7.5 15.1353
Au 2.42705 9 16.0623
Au 14.5623 -1.5 11.4271
Au 12.1353 -3 12.3541
Au 9.7082 -4.5 13.2812
Au 7.28115 -6 14.2082
Au 4.8541 -7.5 15.1353
Au 2.42705 -9 16.0623
Au 16.0623 -2.42705 9
Au 15.1353 -4.8541 7.5
Au 14.2082 -7.28115 6
Au 13.2812 -9.7082 4.5
Au 12.3541 -12.1353 3
Au 11.4271 -14.5623 1.5
Au -16.0623 2.42705 -9
Au -15.1353 4.8541 -7.5
Au -14.2082 7.28115 -6
Au -13.2812 9.7082 -4.5
Au -12.3541 12.1353 -3
Au -11.4271 14.5623 -1.5
Au -14.5623 1.5 -11.4271
Au -12.1353 3 -12.3541
Au -9.7082 4.5 -13.2812
Au -7.28115 6 -14.2082
Au -4.8541 7.5 -15.1353
Au -2.42705 9 -16.0623
Au -16.9894 0 -7.5
Au -16.9894 0 -4.5
Au -16.9894 0 -1.5
Au -16.9894 0 1.5
Au -16.9894 0 4.5
Au -16.9894 0 7.5
Au -14.5623 -1.5 -11.4271
Au -12.1353 -3 -12.3541
Au -9.7082 -4.5 -13.2812
Au -7.28115 -6 -14.2082
Au -4.8541 -7.5 -15.1353
Au -2.42705 -9 -16.0623
Au -16.0623 -2.42705 -9
Au -15.1353 -4.8541 -7.5
Au -14.2082 -7.28115 -6
Au -13.2812 -9.7082 -4.5
Au -12.3541 -12.1353 -3
Au -11.4271 -14.5623 -1.5
Au 16.0623 2.42705 -9
Au 15.1353 4.8541 -7.5
Au 14.2082 7.28115 -6
Au 13.2812 9.7082 -4.5
Au 12.3541 12.1353 -3
Au 11.4271 14.5623 -1.5
Au 16.0623 -2.42705 -9
Au 15.1353 -4.8541 -7.5
Au 14.2082 -7.28115 -6
Au 13.2812 -9.7082 -4.5
Au 12.3541 -12.1353 -3
Au 11.4271 -14.5623 -1.5
Au 14.5623 1.5 -11.4271
Au 12.1353 3 -12.3541
Au 9.7082 4.5 -13.2812
Au 7.28115 6 -14.2082
Au 4.8541 7.5 -15.1353
Au 2.42705 9 -16.0623
Au 14.5623 -1.5 -11.4271
Au 12.1353 -3 -12.3541
Au 9.7082 -4.5 -13.2812
Au 7.28115 -6 -14.2082
Au 4.8541 -7.5 -15.1353
Au 2.42705 -9 -16.0623
Au -16.0623 2.42705 9
Au -15.1353 4.8541 7.5
Au -14.2082 7.28115 6
Au -13.2812 9.7082 4.5
Au -12.3541 12.1353 3
Au -11.4271 14.5623 1.5
Au -14.5623 1.5 11.4271
Au -12.1353 3 12.3541
Au -9.7082 4.5 13.2812
Au -7.28115 6 14.2082
Au -4.8541 7.5 15.1353
Au -2.42705 9 16.0623
Au -14.5623 -1.5 11.4271
Au -12.1353 -3 12.3541
Au -9.7082 -4.5 13.2812
Au -7.28115 -6 14.2082
Au -4.8541 -7.5 15.1353
Au -2.42705 -9 16.0623
Au -16.0623 -2.42705 9
Au -15.1353 -4.8541 7.5
Au -14.2082 -7.28115 6
Au -13.2812 -9.7082 4.5
Au -12.3541 -12.1353 3
Au -11.4271 -14.5623 1.5
Au 7.5 16.9894 0
Au 4.5 16.9894 0
Au 1.5 16.9894 0
Au -1.5 16.9894 0
Au -4.5 16.9894 0
Au -7.5 16.9894 0
Au 9 16.0623 2.42705
Au 7.5 15.1353 4.8541
Au 6 14.2082 7.28115
Au 4.5 13.2812 9.7082
Au 3 12.3541 12.1353
Au 1.5 11.4271 14.5623
Au 9 16.0623 -2.42705
Au 7.5 15.1353 -4.8541
Au 6 14.2082 -7.28115
Au 4.5 13.2812 -9.7082
Au 3 12.3541 -12.1353
Au 1.5 11.4271 -14.5623
Au -9 -16.0623 2.42705
Au -7.5 -15.1353 4.8541
Au -6 -14.2082 7.28115
Au -4.5 -13.2812 9.7082
Au -3 -12.3541 12.1353
Au -1.5 -11.4271 14.5623
Au -7.5 -16.9894 0
Au -4.5 -16.9894 0
Au -1.5 -16.9894 0
Au 1.5 -16.9894 0
Au 4.5 -16.9894 0
Au 7.5 -16.9894 0
Au -9 -16.0623 -2.42705
Au -7.5 -15.1353 -4.8541
Au -6 -14.2082 -7.28115
Au -4.5 -13.2812 -9.7082
Au -3 -12.3541 -12.1353
Au -1.5 -11.4271 -14.5623
Au 9 -16.0623 2.42705
Au 7.5 -15.1353 4.8541
Au 6 -14.2082 7.28115
Au 4.5 -13.2812 9.7082
Au 3 -12.3541 12.1353
Au 1.5 -11.4271 14.5623
Au 9 -16.0623 -2.42705
Au 7.5 -15.1353 -4.8541
Au 6 -14.2082 -7.28115
Au 4.5 -13.2812 -9.7082
Au 3 -12.3541 -12.1353
Au 1.5 -11.4271 -14.5623
Au -9 16.0623 2.42705
Au -7.5 15.1353 4.8541
Au -6 14.2082 7.28115
Au -4.5 13.2812 9.7082
Au -3 12.3541 12.1353
Au -1.5 11.4271 14.5623
Au -9 16.0623 -2.42705
Au -7.5 15.1353 -4.8541
Au -6 14.2082 -7.28115
Au -4.5 13.2812 -9.7082
Au -3 12.3541 -12.1353
Au -1.5 11.4271 -14.5623
Au 0 7.5 -16.9894
Au 0 4.5 -16.9894
Au 0 1.5 -16.9894
Au 0 -1.5 -16.9894
Au 0 -4.5 -16.9894
Au 0 -7.5 -16.9894
Au 0 -7.5 16.9894
Au 0 -4.5 16.9894
Au 0 -1.5 16.9894
Au 0 1.5 16.9894
Au 0 4.5 16.9894
Au 0 7.5 16.9894
Au 16.0623 2.42705 6
Au 16.0623 2.42705 3
Au 15.1353 4.8541 4.5
Au 16.0623 2.42705 0
Au 15.1353 4.8541 1.5
Au 14.2082 7.28115 3
Au 16.0623 2.42705 -3
Au 15.1353 4.8541 -1.5
Au 14.2082 7.28115 0
Au 13.2812 9.7082 1.5
Au 16.0623 2.42705 -6
Au 15.1353 4.8541 -4.5
Au 14.2082 7.28115 -3
Au 13.2812 9.7082 -1.5
Au 12.3541 12.1353 0
Au 13.6353 3.92705 9.92705
Au 12.7082 6.3541 8.42705
Au 11.2082 5.42705 10.8541
Au 11.7812 8.78115 6.92705
Au 10.2812 7.8541 9.3541
Au 8.78115 6.92705 11.7812
Au 10.8541 11.2082 5.42705
Au 9.3541 10.2812 7.8541
Au 7.8541 9.3541 10.2812
Au 6.3541 8.42705 12.7082
Au 9.92705 13.6353 3.92705
Au 8.42705 12.7082 6.3541
Au 6.92705 11.7812 8.78115
Au 5.42705 10.8541 11.2082
Au 3.92705 9.92705 13.6353
Au 12.1353 0 12.3541
Au 9.7082 1.5 13.2812
Au 9.7082 -1.5 13.2812
Au 7.28115 3 14.2082
Au 7.28115 0 14.2082
Au 7.28115 -3 14.2082
Au 4.8541 4.5 15.1353
Au 4.8541 1.5 15.1353
Au 4.8541 -1.5 15.1353
Au 4.8541 -4.5 15.1353
Au 2.42705 6 16.0623
Au 2.42705 3 16.0623
Au 2.42705 0 16.0623
Au 2.42705 -3 16.0623
Au 2.42705 -6 16.0623
Au 13.6353 -3.92705 9.92705
Au 11.2082 -5.42705 10.8541
Au 12.7082 -6.3541 8.42705
Au 8.78115 -6.92705 11.7812
Au 10.2812 -7.8541 9.3541
Au 11.7812 -8.78115 6.92705
Au 6.3541 -8.42705 12.7082
Au 7.8541 -9.3541 10.2812
Au 9.3541 -10.2812 7.8541
Au 10.8541 -11.2082 5.42705
Au 3.92705 -9.92705 13.6353
Au 5.42705 -10.8541 11.2082
Au 6.92705 -11.7812 8.78115
Au 8.42705 -12.7082 6.3541
Au 9.92705 -13.6353 3.92705
Au 16.0623 -2.42705 6
Au 16.0623 -2.42705 3
Au 15.1353 -4.8541 4.5
Au 16.0623 -2.42705 0
Au 15.1353 -4.8541 1.5
Au 14.2082 -7.28115 3
Au 16.0623 -2.42705 -3
Au 15.1353 -4.8541 -1.5
Au 14.2082 -7.28115 0
Au 13.2812 -9.7082 1.5
Au 16.0623 -2.42705 -6
Au 15.1353 -4.8541 -4.5
Au 14.2082 -7.28115 -3
Au 13.2812 -9.7082 -1.5
Au 12.3541 -12.1353 0
Au -13.6353 3.92705 -9.92705
Au -12.7082 6.3541 -8.42705
Au -11.2082 5.42705 -10.8541
Au -11.7812 8.78115 -6.92705
Au -10.2812 7.8541 -9.3541
Au -8.78115 6.92705 -11.7812
Au -10.8541 11.2082 -5.42705
Au -9.3541 10.2812 -7.8541
Au -7.8541 9.3541 -10.2812
Au -6.3541 8.42705 -12.7082
Au -9.92705 13.6353 -3.92705
Au -8.42705 12.7082 -6.3541
Au -6.92705 11.7812 -8.78115
Au -5.42705 10.8541 -11.2082
Au -3.92705 9.92705 -13.6353
Au -16.0623 2.42705 -6
Au -15.1353 4.8541 -4.5
Au -16.0623 2.42705 -3
Au -14.2082 7.28115 -3
Au -15.1353 4.8541 -1.5
Au -16.0623 2.42705 0
Au -13.2812 9.7082 -1.5
Au -14.2082 7.28115 0
Au -15.1353 4.8541 1.5
Au -16.0623 2.42705 3
Au -12.3541 12.1353 0
Au -13.2812 9.7082 1.5
Au -14.2082 7.28115 3
Au -15.1353 4.8541 4.5
Au -16.0623 2.42705 6
Au -16.0623 -2.42705 -6
Au -16.0623 -2.42705 -3
Au -15.1353 -4.8541 -4.5
Au -16.0623 -2.42705 0
Au -15.1353 -4.8541 -1.5
Au -14.2082 -7.28115 -3
Au -16.0623 -2.42705 3
Au -15.1353 -4.8541 1.5
Au -14.2082 -7.28115 0
Au -13.2812 -9.7082 -1.5
Au -16.0623 -2.42705 6
Au -15.1353 -4.8541 4.5
Au -14.2082 -7.28115 3
Au -13.2812 -9.7082 1.5
Au -12.3541 -12.1353 0
Au -13.6353 -3.92705 -9.92705
Au -11.2082 -5.42705 -10.8541
Au -12.7082 -6.3541 -8.42705
Au -8.78115 -6.92705 -11.7812
Au -10.2812 -7.8541 -9.3541
Au -11.7812 -8.78115 -6.92705
Au -6.3541 -8.42705 -12.7082
Au -7.8541 -9.3541 -10.2812
Au -9.3541 -10.2812 -7.8541
Au -10.8541 -11.2082 -5.42705
Au -3.92705 -9.92705 -13.6353
Au -5.42705 -10.8541 -11.2082
Au -6.92705 -11.7812 -8.78115
Au -8.42705 -12.7082 -6.3541
Au -9.92705 -13.6353 -3.92705
Au -12.1353 0 -12.3541
Au -9.7082 1.5 -13.2812
Au -9.7082 -1.5 -13.2812
Au -7.28115 3 -14.2082
Au -7.28115 0 -14.2082
Au -7.28115 -3 -14.2082
Au -4.8541 4.5 -15.1353
Au -4.8541 1.5 -15.1353
Au -4.8541 -1.5 -15.1353
Au -4.8541 -4.5 -15.1353
Au -2.42705 6 -16.0623
Au -2.42705 3 -16.0623
Au -2.42705 0 -16.0623
Au -2.42705 -3 -16.0623
Au -2.42705 -6 -16.0623
Au 13.6353 3.92705 -9.92705
Au 12.7082 6.3541 -8.42705
Au 11.2082 5.42705 -10.8541
Au 11.7812 8.78115 -6.92705
Au 10.2812 7.8541 -9.3541
Au 8.78115 6.92705 -11.7812
Au 10.8541 11.2082 -5.42705
Au 9.3541 10.2812 -7.8541
Au 7.8541 9.3541 -10.2812
Au 6.3541 8.42705 -12.7082
Au 9.92705 13.6353 -3.92705
Au 8.42705 12.7082 -6.3541
Au 6.92705 11.7812 -8.78115
Au 5.42705 10.8541 -11.2082
Au 3.92705 9.92705 -13.6353
Au 12.1353 0 -12.3541
Au 9.7082 1.5 -13.2812
Au 9.7082 -1.5 -13.2812
Au 7.28115 3 -14.2082
Au 7.28115 0 -14.2082
Au 7.28115 -3 -14.2082
Au 4.8541 4.5 -15.1353
Au 4.8541 1.5 -15.1353
Au 4.8541 -1.5 -15.1353
Au 4.8541 -4.5 -15.1353
Au 2.42705 6 -16.0623
Au 2.42705 3 -16.0623
Au 2.42705 0 -16.0623
Au 2.42705 -3 -16.0623
Au 2.42705 -6 -16.0623
Au 13.6353 -3.92705 -9.92705
Au 12.7082 -6.3541 -8.42705
Au 11.2082 -5.42705 -10.8541
Au 11.7812 -8.78115 -6.92705
Au 10.2812 -7.8541 -9.3541
Au 8.78115 -6.92705 -11.7812
Au 10.8541 -11.2082 -5.42705
Au 9.3541 -10.2812 -7.8541
Au 7.8541 -9.3541 -10.2812
Au 6.3541 -8.42705 -12.7082
Au 9.92705 -13.6353 -3.92705
Au 8.42705 -12.7082 -6.3541
Au 6.92705 -11.7812 -8.78115
Au 5.42705 -10.8541 -11.2082
Au 3.92705 -9.92705 -13.6353
Au -13.6353 -3.92705 9.92705
Au -11.2082 -5.42705 10.8541
Au -12.7082 -6.3541 8.42705
Au -8.78115 -6.92705 11.7812
Au -10.2812 -7.8541 9.3541
Au -11.7812 -8.78115 6.92705
Au -6.3541 -8.42705 12.7082
Au -7.8541 -9.3541 10.2812
Au -9.3541 -10.2812 7.8541
Au -10.8541 -11.2082 5.42705
Au -3.92705 -9.92705 13.6353
Au -5.42705 -10.8541 11.2082
Au -6.92705 -11.7812 8.78115
Au -8.42705 -12.7082 6.3541
Au -9.92705 -13.6353 3.92705
Au -12.1353 0 12.3541
Au -9.7082 1.5 13.2812
Au -9.7082 -1.5 13.2812
Au -7.28115 3 14.2082
Au -7.28115 0 14.2082
Au -7.28115 -3 14.2082
Au -4.8541 4.5 15.1353
Au -4.8541 1.5 15.1353
Au -4.8541 -1.5 15.1353
Au -4.8541 -4.5 15.1353
Au -2.42705 6 16.0623
Au -2.42705 3 16.0623
Au -2.42705 0 16.0623
Au -2.42705 -3 16.0623
Au -2.42705 -6 16.0623
Au -13.6353 3.92705 9.92705
Au -12.7082 6.3541 8.42705
Au -11.2082 5.42705 10.8541
Au -11.7812 8.78115 6.92705
Au -10.2812 7.8541 9.3541
Au -8.78115 6.92705 11.7812
Au -10.8541 11.2082 5.42705
Au -9.3541 10.2812 7.8541
Au -7.8541 9.3541 10.2812
Au -6.3541 8.42705 12.7082
Au -9.92705 13.6353 3.92705
Au -8.42705 12.7082 6.3541
Au -6.92705 11.7812 8.78115
Au -5.42705 10.8541 11.2082
Au -3.92705 9.92705 13.6353
Au 6 16.0623 -2.42705
Au 3 16.0623 -2.42705
Au 4.5 15.1353 -4.8541
Au 0 16.0623 -2.42705
Au 1.5 15.1353 -4.8541
Au 3 14.2082 -7.28115
Au -3 16.0623 -2.42705
Au -1.5 15.1353 -4.8541
Au 0 14.2082 -7.28115
Au 1.5 13.2812 -9.7082
Au -6 16.0623 -2.42705
Au -4.5 15.1353 -4.8541
Au -3 14.2082 -7.28115
Au -1.5 13.2812 -9.7082
Au 0 12.3541 -12.1353
Au 6 16.0623 2.42705
Au 3 16.0623 2.42705
Au 4.5 15.1353 4.8541
Au 0 16.0623 2.42705
Au 1.5 15.1353 4.8541
Au 3 14.2082 7.28115
Au -3 16.0623 2.42705
Au -1.5 15.1353 4.8541
Au 0 14.2082 7.28115
Au 1.5 13.2812 9.7082
Au -6 16.0623 2.42705
Au -4.5 15.1353 4.8541
Au -3 14.2082 7.28115
Au -1.5 13.2812 9.7082
Au 0 12.3541 12.1353
Au -6 -16.0623 2.42705
Au -4.5 -15.1353 4.8541
Au -3 -16.0623 2.42705
Au -3 -14.2082 7.28115
Au -1.5 -15.1353 4.8541
Au 0 -16.0623 2.42705
Au -1.5 -13.2812 9.7082
Au 0 -14.2082 7.28115
Au 1.5 -15.1353 4.8541
Au 3 -16.0623 2.42705
Au 0 -12.3541 12.1353
Au 1.5 -13.2812 9.7082
Au 3 -14.2082 7.28115
Au 4.5 -15.1353 4.8541
Au 6 -16.0623 2.42705
Au -6 -16.0623 -2.42705
Au -3 -16.0623 -2.42705
Au -4.5 -15.1353 -4.8541
Au 0 -16.0623 -2.42705
Au -1.5 -15.1353 -4.8541
Au -3 -14.2082 -7.28115
Au 3 -16.0623 -2.42705
Au 1.5 -15.1353 -4.8541
Au 0 -14.2082 -7.28115
Au -1.5 -13.2812 -9.7082
Au 6 -16.0623 -2.42705
Au 4.5 -15.1353 -4.8541
Au 3 -14.2082 -7.28115
Au 1.5 -13.2812 -9.7082
Au 0 -12.3541 -12.1353
